<?xml version="1.0"?>
<routes>
   <vType id="vtype0" accel="2.6" decel="4.5" sigma="0.5" length="2.5" minGap="2.5" maxSpeed="14" color="1,1,0"/>
   <route id="route0" edges="A0toB0 B0toB1 B1toA1 A1toA0"/>
   <flow id="flow0" type="vtype0" route="route0" begin="0" period="5" number="30"/>
   <route id="route1" edges="A0toA1 A1toB1 B1toB0 B0toA0"/>
   <flow id="flow1" type="vtype0" route="route1" begin="1" period="5" number="30"/>
   
</routes>
