[General]
cmdenv-express-mode = true
cmdenv-autoflush = true
cmdenv-status-frequency = 1s
**.cmdenv-log-level = info

ned-path = .
image-path = ../../images

network = TDrive

##########################################################
#            Simulation parameters                       #
##########################################################
debug-on-errors = true
print-undisposed = false

sim-time-limit = 18000s


**.scalar-recording = true
**.vector-recording = true

**.debug = false
**.coreDebug = false

*.playgroundSizeX = 300000m
*.playgroundSizeY = 300000m
*.playgroundSizeZ = 5m


##########################################################
# Annotation parameters                                  #
##########################################################
*.annotations.draw = true

##########################################################
# Obstacle parameters                                    #
##########################################################
#*.obstacles.debug = false
#*.obstacles.obstacles = xmldoc("config.xml", "//AnalogueModel[@type='SimpleObstacleShadowing']/obstacles")

##########################################################
#            TraCIScenarioManager parameters             #
##########################################################
*.manager.updateInterval = 3s
*.manager.host = "localhost"
*.manager.port = 9999
*.manager.autoShutdown = true
*.manager.launchConfig = xmldoc("t-drive.launchd.xml")
*.manager.seed = 49

#200m
#*.manager.LatitudeIni = 39.300
#*.manager.LongitudeIni = 115.0093
#*.manager.distmLong = 0.002265394 #Value of R distmHaversine function to distance about 200m 
#*.manager.distmLat = 0.001796632 #Value of R distmHaversine function to distance about 200m
#*.manager.forwardZoneEnabled = false
#*.manager.factorXY = 10000

#TOP10 - Fluxo
#*.manager.roiAzs = "3460622 3760614 3270595 4050555 3290619 2450581 4130567 3750574 3510597 3330599"					 
#TOP10 - betweenness
#*.manager.roiAzs = "3780603 3400619 3330624 3560598 3290610 3410623 3350622 3390623 3640622 3580596"
#TOP10 - hibrido
#*.manager.roiAzs = "3780603 3400619 3330624 3460622 3560598 3290619 3270595 3760614 3350622 3390623"


#400m
*.manager.LatitudeIni = 39.300
*.manager.LongitudeIni = 115.0093
*.manager.distmLong = 0.004530788 #Value of R distmHaversine function to distance about 400m 
*.manager.distmLat = 0.003593264 #Value of R distmHaversine function to distance about 400m
*.manager.forwardZoneEnabled = false
*.manager.factorXY = 1000

#*.manager.roiAzs = "173303 188299 163290 187294 164302 122283 175291 166292 187280 163294" #fluxo
*.manager.roiAzs = "144310 129329 157301 215267 157329 196266 128284 149326 199282 211285" #betweenness



##########################################################
#            11p specific parameters                     #
#                                                        #
#                    NIC-Settings                        #
##########################################################
*.connectionManager.sendDirect = true
*.connectionManager.maxInterfDist = 100m
#*.connectionManager.drawMaxIntfDist = true

#*.**.nic.mac1609_4.useServiceChannel = false

*.**.nic.mac1609_4.txPower = 20mW
*.**.nic.mac1609_4.bitrate = 6Mbps
*.**.nic.phy80211p.sensitivity = -89dBm

*.**.nic.phy80211p.useThermalNoise = true
*.**.nic.phy80211p.thermalNoise = -100dBm

*.**.nic.phy80211p.decider = xmldoc("config.xml")
*.**.nic.phy80211p.analogueModels = xmldoc("config.xml")
*.**.nic.phy80211p.usePropagationDelay = true

*.**.nic.phy80211p.antenna = xmldoc("antenna.xml", "/root/Antenna[@id='monopole']")




##########################################################
#                    WaveAppLayer                        #
##########################################################

*.*.applType = "TraCIAzApp"
#*.*.applType = "TraCIDemo11p"
*.*.appl.headerLength = 80 bit
*.*.appl.sendBeacons = false
*.*.appl.dataOnSch = false
*.**.nic.mac1609_4.useServiceChannel = false
*.*.appl.beaconInterval = 1s

##########################################################
#                      Mobility                          #
##########################################################
*.node[*].veinsmobilityType.debug = true
*.node[*].veinsmobility.x = 150
*.node[*].veinsmobility.y = 150
*.node[*].veinsmobility.z = 1.895
#*.node[*].veinsmobility.accidentCount = 1
#*.node[*].veinsmobility.accidentStart = 75s
#*.node[*].veinsmobility.accidentDuration = 50s

#[Config WithoutChannelSwitching]

#[Config WithChannelSwitching]
#*.**.nic.mac1609_4.useServiceChannel = true
#*.node[*].appl.dataOnSch = true



