[General]
cmdenv-express-mode = true
cmdenv-autoflush = true
cmdenv-status-frequency = 1s
**.cmdenv-log-level = info

ned-path = .
image-path = ../../images

network = TDrive

##########################################################
#            Simulation parameters                       #
##########################################################
debug-on-errors = true
print-undisposed = false

sim-time-limit = 18000s


**.scalar-recording = true
**.vector-recording = true

**.debug = false
**.coreDebug = false

*.playgroundSizeX = 300000m
*.playgroundSizeY = 300000m
*.playgroundSizeZ = 5m


##########################################################
# Annotation parameters                                  #
##########################################################
*.annotations.draw = true

##########################################################
# Obstacle parameters                                    #
##########################################################
#*.obstacles.debug = false
#*.obstacles.obstacles = xmldoc("config.xml", "//AnalogueModel[@type='SimpleObstacleShadowing']/obstacles")

##########################################################
#            TraCIScenarioManager parameters             #
##########################################################
*.manager.updateInterval = 3s
*.manager.host = "localhost"
*.manager.port = 9999
*.manager.autoShutdown = true
*.manager.launchConfig = xmldoc("t-drive.launchd.xml")
*.manager.seed = 49


#TOP10 - Fluxo
#*.manager.roiAzs = "3460622 3700576 3750574 3750602 3760614 2770657 3270595 3290619 3290623 3330599" - old
*.manager.roiAzs = "3460622 3760614 3270595 4050555 3290619 2450581 4130567 3750574 3510597 3330599"

#TOP10 - Betweenness
#*.manager.roiAzs = "3410623 3560598 3580596 3640622 3780603 3290610 3330624 3350622 3390623 3400619" - old
#*.manager.roiAzs = "2890636 3530626 3310571 3600629 3690591 2980617 3100649 3120610 3170618 3310630"


##########################################################
#            11p specific parameters                     #
#                                                        #
#                    NIC-Settings                        #
##########################################################
*.connectionManager.sendDirect = true
*.connectionManager.maxInterfDist = 100m
#*.connectionManager.drawMaxIntfDist = true

#*.**.nic.mac1609_4.useServiceChannel = false

*.**.nic.mac1609_4.txPower = 20mW
*.**.nic.mac1609_4.bitrate = 6Mbps
*.**.nic.phy80211p.sensitivity = -89dBm

*.**.nic.phy80211p.useThermalNoise = true
*.**.nic.phy80211p.thermalNoise = -100dBm

*.**.nic.phy80211p.decider = xmldoc("config.xml")
*.**.nic.phy80211p.analogueModels = xmldoc("config.xml")
*.**.nic.phy80211p.usePropagationDelay = true

*.**.nic.phy80211p.antenna = xmldoc("antenna.xml", "/root/Antenna[@id='monopole']")




##########################################################
#                    WaveAppLayer                        #
##########################################################

*.*.applType = "TraCIAzApp"
#*.*.applType = "TraCIDemo11p"
*.*.appl.headerLength = 80 bit
*.*.appl.sendBeacons = false
*.*.appl.dataOnSch = false
*.**.nic.mac1609_4.useServiceChannel = false
*.*.appl.beaconInterval = 1s

##########################################################
#                      Mobility                          #
##########################################################
*.node[*].veinsmobilityType.debug = true
*.node[*].veinsmobility.x = 150
*.node[*].veinsmobility.y = 150
*.node[*].veinsmobility.z = 1.895
#*.node[*].veinsmobility.accidentCount = 1
#*.node[*].veinsmobility.accidentStart = 75s
#*.node[*].veinsmobility.accidentDuration = 50s

#[Config WithoutChannelSwitching]

#[Config WithChannelSwitching]
#*.**.nic.mac1609_4.useServiceChannel = true
#*.node[*].appl.dataOnSch = true



